LTspice 24.0.12 for Windows
Circuit: * C:\users\jorge\Documents\FCEFyN\SRA\Laboratorios_SRA_Angeloff_Moyano\laboratorio_1\circuito_2\LTSpice\L1_C2.asc
Start Time: Thu Feb 27 22:07:25 2025
solver = Normal
Maximum thread count: 8



v1: Missing value, assumed 0V @ DC
.step rl=1e-06



.step rl=1000



.step rl=2000



.step rl=5000
tnom = 27
temp = 27
method = modified trap
.step rl=10000
Total elapsed time: 0.638 seconds.

