LTspice 24.0.12 for Windows
Circuit: * C:\users\jorge\Documents\FCEFyN\SRA\Laboratorio1\Laboratorios_Angeloff_Moyano\L1_C1.asc
Start Time: Mon Nov 11 09:42:34 2024
solver = Normal
Maximum thread count: 8
tnom = 27
temp = 27
method = modified trap
.OP point found by inspection.
Total elapsed time: 0.251 seconds.

