LTspice 24.0.12 for Windows
Circuit: * C:\users\jorge\Documents\FCEFyN\SRA\Laboratorios_SRA_Angeloff_Moyano\laboratorio_1\circuito_1\LTSpice\L1_C1.asc
Start Time: Tue Nov 26 11:50:47 2024
solver = Normal
Maximum thread count: 8
tnom = 27
temp = 27
method = modified trap
WARNING: Less than two connections to node v2.  This node is used by v2.
v1: Missing value, assumed 0V @ DC
v2: Missing value, assumed 0V @ DC
Total elapsed time: 0.510 seconds.

