LTspice 24.0.12 for Windows
Circuit: * C:\users\jorge\Documents\FCEFyN\SRA\Laboratorios_SRA_Angeloff_Moyano\laboratorio_1\circuito_1\LTSpice\L1_C1.asc
Start Time: Wed Nov 20 17:21:27 2024
solver = Normal
Maximum thread count: 8
tnom = 27
temp = 27
method = modified trap
v1: Missing value, assumed 0V @ DC
v2: Missing value, assumed 0V @ DC
Total elapsed time: 0.516 seconds.

