LTspice 24.0.12 for Windows
Circuit: * C:\users\jorge\Documents\FCEFyN\SRA\Laboratorios_SRA_Angeloff_Moyano\laboratorio_1\circuito_4\ltspice\L1_C4.asc
Start Time: Thu Nov 14 19:59:08 2024
solver = Normal
Maximum thread count: 8
tnom = 27
temp = 27
method = modified trap
Direct Newton iteration failed to find .op point.  (Use ".option noopiter" to skip.)
Starting Gmin stepping
Increasing initial diagonal Gmin to 100
Increasing initial diagonal Gmin to 1000
Gmin = 1000
Gmin = 107.374
Gmin = 11.5292
vernier = 0.5
vernier = 0.25
vernier = 0.125
Gmin = 6.73421
vernier = 0.0625
vernier = 0.03125
vernier = 0.015625
vernier = 0.0078125
vernier = 0.00390625
Gmin = 6.83782
vernier = 0.00195312
vernier = 0.000976562
vernier = 0.000488281
Gmin = 0
Gmin stepping failed

Starting source stepping with srcstepmethod=0
Source Step = 3.0303%
Source Step = 33.3333%
Source Step = 63.6364%
Source Step = 93.9394%
Source stepping succeeded in finding the operating point.

Total elapsed time: 0.655 seconds.

