LTspice 24.0.12 for Windows
Circuit: * C:\users\jorge\Documents\FCEFyN\SRA\Laboratorios_SRA_Angeloff_Moyano\laboratorio_1\circuito_4\ltspice\L1_C4.asc
Start Time: Wed Nov 13 22:24:28 2024
solver = Normal
Maximum thread count: 8
tnom = 27
temp = 27
method = modified trap
Direct Newton iteration failed to find .op point.  (Use ".option noopiter" to skip.)
Starting Gmin stepping
Gmin = 10
vernier = 0.5
vernier = 0.25
Gmin = 2.62144
vernier = 0.125
vernier = 0.0625
vernier = 0.03125
vernier = 0.015625
vernier = 0.0078125
Gmin = 2.60112
vernier = 0.0104167
vernier = 0.00520833
vernier = 0.00260417
Gmin = 2.57251
vernier = 0.00347222
vernier = 0.00173611
vernier = 0.000868055
Gmin = 2.5586
vernier = 0.00115741
Gmin = 2.55213
vernier = 0.00154321
vernier = 0.00205761
vernier = 0.00102881
vernier = 0.000514403
Gmin = 2.5455
vernier = 0.00068587
Gmin = 2.54168
vernier = 0.000914493
vernier = 0.00121932
vernier = 0.000609662
vernier = 0.000457246
Gmin = 2.53776
vernier = 0.000609662
Gmin = 2.53438
vernier = 0.000812882
vernier = 0.00108384
vernier = 0.000541921
vernier = 0.000406441
Gmin = 2.53091
vernier = 0.000541921
Gmin = 2.52791
vernier = 0.000722561
vernier = 0.000541921
vernier = 0.000406441
vernier = 0.000541921
Gmin = 2.52594
vernier = 0.000722561
vernier = 0.000541921
vernier = 0.000406441
Gmin = 2.52372
vernier = 0.000541921
vernier = 0.00040644
Gmin = 0
Gmin stepping failed

Starting source stepping with srcstepmethod=0
Source Step = 3.0303%
Source Step = 33.3333%
Source Step = 63.6364%
Source Step = 93.9394%
Source stepping succeeded in finding the operating point.

Total elapsed time: 0.949 seconds.

